[General]

# ==========================================================
# Always include the main Castalia.ini file
# ==========================================================

include ../Parameters/Castalia.ini

sim-time-limit = 600s
simtime-scale = -6


SN.field_x = 100					# meters
SN.field_y = 100					# meters

SN.physicalProcess[0].field_x = 100
SN.physicalProcess[0].field_y = 100

SN.numNodes = 36
SN.deployment = "6x6"

SN.node[*].Communication.Radio.RadioParametersFile = "../Parameters/Radio/CC2420.txt"

SN.node[*].Communication.MACProtocolName = "TMAC"

SN.node[*].Communication.RoutingProtocolName = "SimpleEDRouting"

SN.node[*].ApplicationName = "SimpleEventDetection"
SN.node[3].Application.isSink = true

SN.physicalProcessName = "AnimalPhysicalProcess"

SN.node[*].Application.numSources = 5
SN.physicalProcess[0].numAnimals = 5

#SN.physicalProcess[0].source_0 = " 49 65 28 30; 156 76 37 30; 209 83 92 30; 247 76 10 30; 264 75 24 30; 359 35 59 30; 407 90 79 30; 515 18 76 30; 550 60 17 30; 599 87 51 30"

[Config filterOff]
SN.node[*].Application.filterOn = false
SN.node[*].Application.filterIdeal = false

[Config filterOn]
SN.node[*].Application.filterOn = true
SN.node[*].Application.filterIdeal = false
SN.node[*].Application.timestampEpsilon = 30000

[Config filterIdeal]
SN.node[*].Application.filterOn = true
SN.node[*].Application.filterIdeal = true
SN.node[*].Application.timestampEpsilon = 30000

[Config removeOutliersOff]
SN.node[*].Application.removeOutliers = false

[Config removeOutliersOn]
SN.node[*].Application.removeOutliers = true

[Config bufferOutliersOff]
SN.node[*].Application.bufferOutliers = false

[Config bufferOutliersOn]
SN.node[*].Application.bufferOutliers = true

[Config numSources1]

SN.node[*].Application.numSources = 1
SN.physicalProcess[0].numAnimals = 1

[Config numSources2]
SN.node[*].Application.numSources = 2
SN.physicalProcess[0].numAnimals = 2

[Config numSources3]
SN.node[*].Application.numSources = 3
SN.physicalProcess[0].numAnimals = 3


[Config numSources4]
SN.node[*].Application.numSources = 4
SN.physicalProcess[0].numAnimals = 4


[Config numSources5]
SN.node[*].Application.numSources = 5
SN.physicalProcess[0].numAnimals = 5

[Config varyDistribution]
SN.deployment = ${deployment="6x6","uniform","randomized_6x6"}

[Config varySampleInterval]
SN.node[*].Application.maxSampleInterval = ${sampleInterval=5000,10000,20000,30000}

[Config varySensingDistance]
SN.physicalProcess[0].sensingDistance = ${sensingDistance=10,20,30,40,50}

[Config dist66]
SN.deployment = "6x6"

[Config distRand]
SN.deployment = "randomized_6x6"

[Config distUniform]
SN.deployment = "uniform"

[Config sampleInterval5]
SN.node[*].Application.maxSampleInterval = 5000

[Config sampleInterval10]
SN.node[*].Application.maxSampleInterval = 10000

[Config sampleInterval20]
SN.node[*].Application.maxSampleInterval = 20000

[Config sampleInterval30]
SN.node[*].Application.maxSampleInterval = 30000

[Config sensDistance10]
SN.physicalProcess[0].sensingDistance = 10

[Config sensDistance20]
SN.physicalProcess[0].sensingDistance = 20

[Config sensDistance30]
SN.physicalProcess[0].sensingDistance = 30

[Config sensDistance40]
SN.physicalProcess[0].sensingDistance = 40

[Config sensDistance50]
SN.physicalProcess[0].sensingDistance = 50

[Config sensDistance60]
SN.physicalProcess[0].sensingDistance = 60

[Config sensDistance70]
SN.physicalProcess[0].sensingDistance = 70

[Config sensDistance80]
SN.physicalProcess[0].sensingDistance = 80

[Config field100]
SN.field_x = 100
SN.field_y = 100

SN.physicalProcess[0].field_x = 100
SN.physicalProcess[0].field_y = 100

#SN.physicalProcess[0].source_0 = " 49 65 28 30; 156 76 37 30; 209 83 92 30; 247 76 10 30; 264 75 24 30; 359 35 59 30; 407 90 79 30; 515 18 76 30; 550 60 17 30; 599 87 51 30"
#SN.physicalProcess[0].source_1 = " 32 86  7 30;  74 16 25 30; 214 16  8 30; 278 97 45 30; 295 98 42 30; 322 95 47 30; 496 69 46 30; 513 29 82 30; 521 73 18 30; 561  5 53 30"
#SN.physicalProcess[0].source_2 = "  2 91  8 30; 144 91 86 30; 206 82 43 30; 244 91 81 30; 249 60 17 30; 257 72 52 30; 272 80 15 30; 279 11  6 30; 339 48 15 30; 382 88 66 30"
#SN.physicalProcess[0].source_3 = " 42 56 31 30; 157 42 27 30; 265 40 16 30; 287 22  1 30; 426 24 45 30; 436 15 20 30; 491 68 81 30; 500 92 38 30; 540 21 39 30; 596 82 72 30"
#SN.physicalProcess[0].source_4 = "154 86 43 30; 169 50  3 30; 270 66 78 30; 289 75 94 30; 291 77 12 30; 386 52 15 30; 438 85  7 30; 446 94 12 30; 452  5 97 30; 566 38 72 30"

[Config field200]
SN.field_x = 200
SN.field_y = 200

SN.physicalProcess[0].field_x = 200
SN.physicalProcess[0].field_y = 200

#SN.physicalProcess[0].source_0 = " 21 111 190 30; 248 182  51 30; 264 163  93 30; 265  71   7 30; 288 167  62 30; 337  92 101 30; 443 184  96 30; 449  87 195 30; 502  39 100 30; 564 138 100 30"
#SN.physicalProcess[0].source_1 = "116 136  83 30; 130 140 183 30; 176 136 159 30; 214 136  23 30; 305 154  71 30; 321  50 126 30; 388 200 188 30; 420  13 153 30; 483  86 182 30; 549 143  12 30"
#SN.physicalProcess[0].source_2 = "  5 137  52 30;  56  29  74 30;  66 198  75 30; 179  21  20 30; 289 109 131 30; 296 125  56 30; 316 133  76 30; 323  69 103 30; 383 171  20 30; 567 139 120 30"
#SN.physicalProcess[0].source_3 = " 23  32 196 30;  31 104  63 30;  50 119 134 30; 203  89  83 30; 225 162 139 30; 237  19  20 30; 252 101   4 30; 264  32  78 30; 283 100 188 30; 567  39 184 30"
#SN.physicalProcess[0].source_4 = " 83 136  48 30; 111  10  86 30; 232  20  54 30; 258 128 140 30; 310  40 145 30; 348   5   9 30; 380 173  17 30; 487 132 155 30; 496  12  81 30; 574  13 107 30"

[Config field300]
SN.field_x = 300
SN.field_y = 300

SN.physicalProcess[0].field_x = 300
SN.physicalProcess[0].field_y = 300

#SN.physicalProcess[0].source_0 = "113 118 200 30; 191 202 241 30; 197  54 288 30; 238  25 184 30; 294  31 243 30; 308 279 174 30; 444 241 109 30; 474  43  58 30; 486  36  33 30; 565   7   4 30"
#SN.physicalProcess[0].source_1 = " 14  95  21 30;  79 260 110 30; 167 236  64 30; 214  65 223 30; 283 115 207 30; 298 166 284 30; 304 252 184 30; 329 289 264 30; 488 108 212 30; 565 207  28 30"
#SN.physicalProcess[0].source_2 = " 29 156 271 30; 105  38  77 30; 163 239 135 30; 223 211 197 30; 365  48 229 30; 395 253 144 30; 418 170 216 30; 479  84 157 30; 505  11 150 30; 506 106  47 30"
#SN.physicalProcess[0].source_3 = " 87 202 121 30; 150  13  58 30; 213  33 293 30; 225 211 173 30; 227  88 279 30; 354   3 180 30; 364 292 175 30; 433  92 237 30; 447 293 197 30; 471 153 258 30"
#SN.physicalProcess[0].source_4 = " 37  91  45 30; 159 198 269 30; 242 149 168 30; 294  85 280 30; 300 146 167 30; 354  42 209 30; 437 224  20 30; 505 188  25 30; 529  10 161 30; 563 259 294 30"

[Config nodes50]
SN.numNodes = 50

[Config nodes100]
SN.numNodes = 100

[Config nodes200]
SN.numNodes = 200

[Config nodes300]
SN.numNodes = 300

[Config buffer3]
SN.node[*].Application.bufferThreshold = 3

[Config buffer4]
SN.node[*].Application.bufferThreshold = 4

[Config buffer5]
SN.node[*].Application.bufferThreshold = 5

[Config buffer6]
SN.node[*].Application.bufferThreshold = 6

[Config buffer7]
SN.node[*].Application.bufferThreshold = 7

[Config buffer8]
SN.node[*].Application.bufoerThreshold = 8
